/*--------------------------------*- C++ -*----------------------------------*\
  =========                 |
  \\      /  F ield         | OpenFOAM: The Open Source CFD Toolbox
   \\    /   O peration     | Website:  https://openfoam.org
    \\  /    A nd           | Version:  9
     \\/     M anipulation  |
\*---------------------------------------------------------------------------*/
FoamFile
{
    format      ascii;
    class       volScalarField;
    location    "0";
    object      nut;
}
// * * * * * * * * * * * * * * * * * * * * * * * * * * * * * * * * * * * * * //

dimensions      [0 2 -1 0 0 0 0];

internalField   uniform 0;

boundaryField
{
    //- Set patchGroups for constraint patches
    #includeEtc "caseDicts/setConstraintTypes"

    inlet
    {
        type            calculated;
        value           uniform 0;
    }

    outlet
    {
        type            calculated;
        value           uniform 0;
    }

    openSides
    {
        type            nutkWallFunction;
        value           uniform 0;
    }

    Face_Up
    {
        type cyclicAMI;
        neighbourPatch Face_Down;
    }

    Face_Down
    {
        type cyclicAMI;
        neighbourPatch Face_Up;
    }

    Inner_Body
    {
        type zeroGradient;
    }

    helice3
    {
        type            nutkWallFunction;
        value           uniform 0;

    }
}


// ************************************************************************* //
